!-Generator IDFEditor 1.55
!-Option SortedOrder

!-NOTE: All comments with '!-' are ignored by the IDFEditor and are generated automatically.
!-      Use '!' comments if they need to be retained when using the IDFEditor.


!-   ===========  ALL OBJECTS IN CLASS: VERSION ===========

Version,
    25.1;                    !- Version Identifier


!-   ===========  ALL OBJECTS IN CLASS: SIMULATIONCONTROL ===========

SimulationControl,
    No,                      !- Do Zone Sizing Calculation
    No,                      !- Do System Sizing Calculation
    No,                      !- Do Plant Sizing Calculation
    No,                      !- Run Simulation for Sizing Periods
    Yes,                     !- Run Simulation for Weather File Run Periods
    No,                      !- Do HVAC Sizing Simulation for Sizing Periods
    1;                       !- Maximum Number of HVAC Sizing Simulation Passes


!-   ===========  ALL OBJECTS IN CLASS: BUILDING ===========

Building,
    Baseline V5,             !- Name
    0.0,                     !- North Axis {deg}
    Country,                 !- Terrain
    0.04,                    !- Loads Convergence Tolerance Value {W}
    0.4,                     !- Temperature Convergence Tolerance Value {deltaC}
    FullInteriorAndExterior, !- Solar Distribution
    ,                        !- Maximum Number of Warmup Days
    6;                       !- Minimum Number of Warmup Days


!-   ===========  ALL OBJECTS IN CLASS: SHADOWCALCULATION ===========

ShadowCalculation,
    PolygonClipping,         !- Shading Calculation Method
    Periodic,                !- Shading Calculation Update Frequency Method
    20;                      !- Shading Calculation Update Frequency


!-   ===========  ALL OBJECTS IN CLASS: SURFACECONVECTIONALGORITHM:INSIDE ===========

SurfaceConvectionAlgorithm:Inside,
    TARP;                    !- Algorithm


!-   ===========  ALL OBJECTS IN CLASS: SURFACECONVECTIONALGORITHM:OUTSIDE ===========

SurfaceConvectionAlgorithm:Outside,
    TARP;                    !- Algorithm


!-   ===========  ALL OBJECTS IN CLASS: HEATBALANCEALGORITHM ===========

HeatBalanceAlgorithm,
    ConductionTransferFunction;  !- Algorithm


!-   ===========  ALL OBJECTS IN CLASS: TIMESTEP ===========

Timestep,
    4;                       !- Number of Timesteps per Hour


!-   ===========  ALL OBJECTS IN CLASS: RUNPERIOD ===========

RunPeriod,
    Run Period 1,            !- Name
    1,                       !- Begin Month
    1,                       !- Begin Day of Month
    2025,                    !- Begin Year
    12,                      !- End Month
    31,                      !- End Day of Month
    2025,                    !- End Year
    ,                        !- Day of Week for Start Day
    No,                      !- Use Weather File Holidays and Special Days
    No,                      !- Use Weather File Daylight Saving Period
    No,                      !- Apply Weekend Holiday Rule
    No,                      !- Use Weather File Rain Indicators
    No,                      !- Use Weather File Snow Indicators
    No,                      !- Treat Weather as Actual
    Hour24;                  !- First Hour Interpolation Starting Values


!-   ===========  ALL OBJECTS IN CLASS: SCHEDULETYPELIMITS ===========

ScheduleTypeLimits,
    Any Number;              !- Name

ScheduleTypeLimits,
    Fractional,              !- Name
    0,                       !- Lower Limit Value
    1,                       !- Upper Limit Value
    Continuous,              !- Numeric Type
    Dimensionless;           !- Unit Type

ScheduleTypeLimits,
    ActivityLevel,           !- Name
    0,                       !- Lower Limit Value
    ,                        !- Upper Limit Value
    Continuous,              !- Numeric Type
    ActivityLevel;           !- Unit Type

ScheduleTypeLimits,
    Velocity,                !- Name
    0,                       !- Lower Limit Value
    ,                        !- Upper Limit Value
    Continuous,              !- Numeric Type
    velocity;                !- Unit Type


!-   ===========  ALL OBJECTS IN CLASS: SCHEDULE:DAY:INTERVAL ===========

Schedule:Day:Interval,
    NECB-G-Lighting Sun|Hol Day,  !- Name
    Fractional,              !- Schedule Type Limits Name
    No,                      !- Interpolate to Timestep
    01:00,                   !- Time 1 {hh:mm}
    0.3,                     !- Value Until Time 1
    06:00,                   !- Time 2 {hh:mm}
    0,                       !- Value Until Time 2
    07:00,                   !- Time 3 {hh:mm}
    0.2,                     !- Value Until Time 3
    09:00,                   !- Time 4 {hh:mm}
    0.5,                     !- Value Until Time 4
    19:00,                   !- Time 5 {hh:mm}
    0,                       !- Value Until Time 5
    22:00,                   !- Time 6 {hh:mm}
    0.9,                     !- Value Until Time 6
    23:00,                   !- Time 7 {hh:mm}
    0.8,                     !- Value Until Time 7
    24:00,                   !- Time 8 {hh:mm}
    0.6;                     !- Value Until Time 8

Schedule:Day:Interval,
    NECB-G-Lighting Default|Wkdy Day,  !- Name
    Fractional,              !- Schedule Type Limits Name
    No,                      !- Interpolate to Timestep
    01:00,                   !- Time 1 {hh:mm}
    0.3,                     !- Value Until Time 1
    06:00,                   !- Time 2 {hh:mm}
    0,                       !- Value Until Time 2
    07:00,                   !- Time 3 {hh:mm}
    0.2,                     !- Value Until Time 3
    09:00,                   !- Time 4 {hh:mm}
    0.5,                     !- Value Until Time 4
    19:00,                   !- Time 5 {hh:mm}
    0,                       !- Value Until Time 5
    22:00,                   !- Time 6 {hh:mm}
    0.9,                     !- Value Until Time 6
    23:00,                   !- Time 7 {hh:mm}
    0.8,                     !- Value Until Time 7
    24:00,                   !- Time 8 {hh:mm}
    0.6;                     !- Value Until Time 8

Schedule:Day:Interval,
    NECB-G-Lighting Sat Day, !- Name
    Fractional,              !- Schedule Type Limits Name
    No,                      !- Interpolate to Timestep
    01:00,                   !- Time 1 {hh:mm}
    0.3,                     !- Value Until Time 1
    06:00,                   !- Time 2 {hh:mm}
    0,                       !- Value Until Time 2
    07:00,                   !- Time 3 {hh:mm}
    0.2,                     !- Value Until Time 3
    09:00,                   !- Time 4 {hh:mm}
    0.5,                     !- Value Until Time 4
    19:00,                   !- Time 5 {hh:mm}
    0,                       !- Value Until Time 5
    22:00,                   !- Time 6 {hh:mm}
    0.9,                     !- Value Until Time 6
    23:00,                   !- Time 7 {hh:mm}
    0.8,                     !- Value Until Time 7
    24:00,                   !- Time 8 {hh:mm}
    0.6;                     !- Value Until Time 8

Schedule:Day:Interval,
    NECB-G-Occupancy Sun|Hol Day,  !- Name
    Fractional,              !- Schedule Type Limits Name
    No,                      !- Interpolate to Timestep
    07:00,                   !- Time 1 {hh:mm}
    0.9,                     !- Value Until Time 1
    08:00,                   !- Time 2 {hh:mm}
    0.7,                     !- Value Until Time 2
    17:00,                   !- Time 3 {hh:mm}
    0.5,                     !- Value Until Time 3
    18:00,                   !- Time 4 {hh:mm}
    0.7,                     !- Value Until Time 4
    24:00,                   !- Time 5 {hh:mm}
    0.9;                     !- Value Until Time 5

Schedule:Day:Interval,
    NECB-G-Occupancy Default|Wkdy Day,  !- Name
    Fractional,              !- Schedule Type Limits Name
    No,                      !- Interpolate to Timestep
    07:00,                   !- Time 1 {hh:mm}
    0.9,                     !- Value Until Time 1
    08:00,                   !- Time 2 {hh:mm}
    0.7,                     !- Value Until Time 2
    09:00,                   !- Time 3 {hh:mm}
    0.4,                     !- Value Until Time 3
    17:00,                   !- Time 4 {hh:mm}
    0.3,                     !- Value Until Time 4
    18:00,                   !- Time 5 {hh:mm}
    0.5,                     !- Value Until Time 5
    24:00,                   !- Time 6 {hh:mm}
    0.9;                     !- Value Until Time 6

Schedule:Day:Interval,
    NECB-G-Occupancy Sat Day,!- Name
    Fractional,              !- Schedule Type Limits Name
    No,                      !- Interpolate to Timestep
    07:00,                   !- Time 1 {hh:mm}
    0.9,                     !- Value Until Time 1
    08:00,                   !- Time 2 {hh:mm}
    0.7,                     !- Value Until Time 2
    17:00,                   !- Time 3 {hh:mm}
    0.5,                     !- Value Until Time 3
    18:00,                   !- Time 4 {hh:mm}
    0.7,                     !- Value Until Time 4
    24:00,                   !- Time 5 {hh:mm}
    0.9;                     !- Value Until Time 5

Schedule:Day:Interval,
    NECB-G-Electric-Equipment Sun|Hol Day,  !- Name
    Fractional,              !- Schedule Type Limits Name
    No,                      !- Interpolate to Timestep
    01:00,                   !- Time 1 {hh:mm}
    0.3,                     !- Value Until Time 1
    07:00,                   !- Time 2 {hh:mm}
    0.2,                     !- Value Until Time 2
    09:00,                   !- Time 3 {hh:mm}
    0.8,                     !- Value Until Time 3
    16:00,                   !- Time 4 {hh:mm}
    0.4,                     !- Value Until Time 4
    17:00,                   !- Time 5 {hh:mm}
    0.5,                     !- Value Until Time 5
    18:00,                   !- Time 6 {hh:mm}
    0.2,                     !- Value Until Time 6
    20:00,                   !- Time 7 {hh:mm}
    0.9,                     !- Value Until Time 7
    21:00,                   !- Time 8 {hh:mm}
    0.7,                     !- Value Until Time 8
    24:00,                   !- Time 9 {hh:mm}
    0.5;                     !- Value Until Time 9

Schedule:Day:Interval,
    NECB-G-Electric-Equipment Default|Wkdy Day,  !- Name
    Fractional,              !- Schedule Type Limits Name
    No,                      !- Interpolate to Timestep
    01:00,                   !- Time 1 {hh:mm}
    0.3,                     !- Value Until Time 1
    07:00,                   !- Time 2 {hh:mm}
    0.2,                     !- Value Until Time 2
    09:00,                   !- Time 3 {hh:mm}
    0.8,                     !- Value Until Time 3
    16:00,                   !- Time 4 {hh:mm}
    0.4,                     !- Value Until Time 4
    17:00,                   !- Time 5 {hh:mm}
    0.5,                     !- Value Until Time 5
    18:00,                   !- Time 6 {hh:mm}
    0.2,                     !- Value Until Time 6
    20:00,                   !- Time 7 {hh:mm}
    0.9,                     !- Value Until Time 7
    21:00,                   !- Time 8 {hh:mm}
    0.7,                     !- Value Until Time 8
    24:00,                   !- Time 9 {hh:mm}
    0.5;                     !- Value Until Time 9

Schedule:Day:Interval,
    NECB-G-Electric-Equipment Sat Day,  !- Name
    Fractional,              !- Schedule Type Limits Name
    No,                      !- Interpolate to Timestep
    01:00,                   !- Time 1 {hh:mm}
    0.3,                     !- Value Until Time 1
    07:00,                   !- Time 2 {hh:mm}
    0.2,                     !- Value Until Time 2
    09:00,                   !- Time 3 {hh:mm}
    0.8,                     !- Value Until Time 3
    16:00,                   !- Time 4 {hh:mm}
    0.4,                     !- Value Until Time 4
    17:00,                   !- Time 5 {hh:mm}
    0.5,                     !- Value Until Time 5
    18:00,                   !- Time 6 {hh:mm}
    0.2,                     !- Value Until Time 6
    20:00,                   !- Time 7 {hh:mm}
    0.9,                     !- Value Until Time 7
    21:00,                   !- Time 8 {hh:mm}
    0.7,                     !- Value Until Time 8
    24:00,                   !- Time 9 {hh:mm}
    0.5;                     !- Value Until Time 9

Schedule:Day:Interval,
    Always On Default,       !- Name
    Fractional,              !- Schedule Type Limits Name
    No,                      !- Interpolate to Timestep
    24:00,                   !- Time 1 {hh:mm}
    1;                       !- Value Until Time 1

Schedule:Day:Interval,
    Heating Setpoint,        !- Name
    Any Number,              !- Schedule Type Limits Name
    No,                      !- Interpolate to Timestep
    7:00,                    !- Time 1 {hh:mm}
    18,                      !- Value Until Time 1
    23:00,                   !- Time 2 {hh:mm}
    21,                      !- Value Until Time 2
    24:00,                   !- Time 3 {hh:mm}
    18;                      !- Value Until Time 3

Schedule:Day:Interval,
    Cooling Setpoint,        !- Name
    Any Number,              !- Schedule Type Limits Name
    No,                      !- Interpolate to Timestep
    24:00,                   !- Time 1 {hh:mm}
    99.0;                    !- Value Until Time 1

Schedule:Day:Interval,
    NECB-G-WaterHeating Sun|Hol Day,  !- Name
    Fractional,              !- Schedule Type Limits Name
    No,                      !- Interpolate to Timestep
    01:00,                   !- Time 1 {hh:mm}
    0.1,                     !- Value Until Time 1
    08:00,                   !- Time 2 {hh:mm}
    0.05,                    !- Value Until Time 2
    09:00,                   !- Time 3 {hh:mm}
    0.2,                     !- Value Until Time 3
    11:00,                   !- Time 4 {hh:mm}
    0.3,                     !- Value Until Time 4
    13:00,                   !- Time 5 {hh:mm}
    0.2,                     !- Value Until Time 5
    14:00,                   !- Time 6 {hh:mm}
    0.3,                     !- Value Until Time 6
    15:00,                   !- Time 7 {hh:mm}
    0.4,                     !- Value Until Time 7
    16:00,                   !- Time 8 {hh:mm}
    0.5,                     !- Value Until Time 8
    17:00,                   !- Time 9 {hh:mm}
    0.6,                     !- Value Until Time 9
    18:00,                   !- Time 10 {hh:mm}
    0.7,                     !- Value Until Time 10
    19:00,                   !- Time 11 {hh:mm}
    0.4,                     !- Value Until Time 11
    20:00,                   !- Time 12 {hh:mm}
    0.3,                     !- Value Until Time 12
    24:00,                   !- Time 13 {hh:mm}
    0.2;                     !- Value Until Time 13

Schedule:Day:Interval,
    NECB-G-WaterHeating Default|Wkdy Day,  !- Name
    Fractional,              !- Schedule Type Limits Name
    No,                      !- Interpolate to Timestep
    01:00,                   !- Time 1 {hh:mm}
    0.1,                     !- Value Until Time 1
    07:00,                   !- Time 2 {hh:mm}
    0.05,                    !- Value Until Time 2
    08:00,                   !- Time 3 {hh:mm}
    0.2,                     !- Value Until Time 3
    11:00,                   !- Time 4 {hh:mm}
    0.5,                     !- Value Until Time 4
    15:00,                   !- Time 5 {hh:mm}
    0.3,                     !- Value Until Time 5
    16:00,                   !- Time 6 {hh:mm}
    0.7,                     !- Value Until Time 6
    17:00,                   !- Time 7 {hh:mm}
    0.9,                     !- Value Until Time 7
    19:00,                   !- Time 8 {hh:mm}
    0.7,                     !- Value Until Time 8
    20:00,                   !- Time 9 {hh:mm}
    0.6,                     !- Value Until Time 9
    21:00,                   !- Time 10 {hh:mm}
    0.5,                     !- Value Until Time 10
    22:00,                   !- Time 11 {hh:mm}
    0.4,                     !- Value Until Time 11
    23:00,                   !- Time 12 {hh:mm}
    0.3,                     !- Value Until Time 12
    24:00,                   !- Time 13 {hh:mm}
    0.2;                     !- Value Until Time 13

Schedule:Day:Interval,
    NECB-G-WaterHeating Sat Day,  !- Name
    Fractional,              !- Schedule Type Limits Name
    No,                      !- Interpolate to Timestep
    01:00,                   !- Time 1 {hh:mm}
    0.1,                     !- Value Until Time 1
    06:00,                   !- Time 2 {hh:mm}
    0.05,                    !- Value Until Time 2
    07:00,                   !- Time 3 {hh:mm}
    0.2,                     !- Value Until Time 3
    08:00,                   !- Time 4 {hh:mm}
    0.8,                     !- Value Until Time 4
    09:00,                   !- Time 5 {hh:mm}
    0.7,                     !- Value Until Time 5
    10:00,                   !- Time 6 {hh:mm}
    0.5,                     !- Value Until Time 6
    11:00,                   !- Time 7 {hh:mm}
    0.4,                     !- Value Until Time 7
    14:00,                   !- Time 8 {hh:mm}
    0.2,                     !- Value Until Time 8
    15:00,                   !- Time 9 {hh:mm}
    0.3,                     !- Value Until Time 9
    17:00,                   !- Time 10 {hh:mm}
    0.5,                     !- Value Until Time 10
    19:00,                   !- Time 11 {hh:mm}
    0.7,                     !- Value Until Time 11
    21:00,                   !- Time 12 {hh:mm}
    0.4,                     !- Value Until Time 12
    23:00,                   !- Time 13 {hh:mm}
    0.2,                     !- Value Until Time 13
    24:00,                   !- Time 14 {hh:mm}
    0.1;                     !- Value Until Time 14

Schedule:Day:Interval,
    NECB-Activity Default,   !- Name
    ActivityLevel,           !- Schedule Type Limits Name
    No,                      !- Interpolate to Timestep
    07:00,                   !- Time 1 {hh:mm}
    73.2,                    !- Value Until Time 1
    23:00,                   !- Time 2 {hh:mm}
    105,                     !- Value Until Time 2
    24:00,                   !- Time 3 {hh:mm}
    73.2;                    !- Value Until Time 3

Schedule:Day:Interval,
    Work Efficiency Schedule Default,  !- Name
    Fractional,              !- Schedule Type Limits Name
    No,                      !- Interpolate to Timestep
    24:00,                   !- Time 1 {hh:mm}
    0;                       !- Value Until Time 1

Schedule:Day:Interval,
    Clothing Schedule Default Winter Clothes,  !- Name
    Any Number,              !- Schedule Type Limits Name
    No,                      !- Interpolate to Timestep
    7:00,                    !- Time 1 {hh:mm}
    1.38,                    !- Value Until Time 1
    23:00,                   !- Time 2 {hh:mm}
    1,                       !- Value Until Time 2
    24:00,                   !- Time 3 {hh:mm}
    1.38;                    !- Value Until Time 3

Schedule:Day:Interval,
    Clothing Schedule Summer Clothes,  !- Name
    Any Number,              !- Schedule Type Limits Name
    No,                      !- Interpolate to Timestep
    7:00,                    !- Time 1 {hh:mm}
    1.38,                    !- Value Until Time 1
    23:00,                   !- Time 2 {hh:mm}
    0.5,                     !- Value Until Time 2
    24:00,                   !- Time 3 {hh:mm}
    1.38;                    !- Value Until Time 3

Schedule:Day:Interval,
    Air Velocity Schedule Default,  !- Name
    Velocity,                !- Schedule Type Limits Name
    No,                      !- Interpolate to Timestep
    24:00,                   !- Time 1 {hh:mm}
    0.2;                     !- Value Until Time 1


!-   ===========  ALL OBJECTS IN CLASS: SCHEDULE:WEEK:DAILY ===========

Schedule:Week:Daily,
    NECB-G-Lighting Week Rule - Jan1-Dec31,  !- Name
    NECB-G-Lighting Sun|Hol Day,  !- Sunday Schedule:Day Name
    NECB-G-Lighting Default|Wkdy Day,  !- Monday Schedule:Day Name
    NECB-G-Lighting Default|Wkdy Day,  !- Tuesday Schedule:Day Name
    NECB-G-Lighting Default|Wkdy Day,  !- Wednesday Schedule:Day Name
    NECB-G-Lighting Default|Wkdy Day,  !- Thursday Schedule:Day Name
    NECB-G-Lighting Default|Wkdy Day,  !- Friday Schedule:Day Name
    NECB-G-Lighting Sat Day, !- Saturday Schedule:Day Name
    NECB-G-Lighting Sun|Hol Day,  !- Holiday Schedule:Day Name
    NECB-G-Lighting Default|Wkdy Day,  !- SummerDesignDay Schedule:Day Name
    NECB-G-Lighting Default|Wkdy Day,  !- WinterDesignDay Schedule:Day Name
    NECB-G-Lighting Default|Wkdy Day,  !- CustomDay1 Schedule:Day Name
    NECB-G-Lighting Default|Wkdy Day;  !- CustomDay2 Schedule:Day Name

Schedule:Week:Daily,
    NECB-G-Occupancy Week Rule - Jan1-Dec31,  !- Name
    NECB-G-Occupancy Sun|Hol Day,  !- Sunday Schedule:Day Name
    NECB-G-Occupancy Default|Wkdy Day,  !- Monday Schedule:Day Name
    NECB-G-Occupancy Default|Wkdy Day,  !- Tuesday Schedule:Day Name
    NECB-G-Occupancy Default|Wkdy Day,  !- Wednesday Schedule:Day Name
    NECB-G-Occupancy Default|Wkdy Day,  !- Thursday Schedule:Day Name
    NECB-G-Occupancy Default|Wkdy Day,  !- Friday Schedule:Day Name
    NECB-G-Occupancy Sat Day,!- Saturday Schedule:Day Name
    NECB-G-Occupancy Sun|Hol Day,  !- Holiday Schedule:Day Name
    NECB-G-Occupancy Default|Wkdy Day,  !- SummerDesignDay Schedule:Day Name
    NECB-G-Occupancy Default|Wkdy Day,  !- WinterDesignDay Schedule:Day Name
    NECB-G-Occupancy Default|Wkdy Day,  !- CustomDay1 Schedule:Day Name
    NECB-G-Occupancy Default|Wkdy Day;  !- CustomDay2 Schedule:Day Name

Schedule:Week:Daily,
    NECB-G-Electric-Equipment Week Rule - Jan1-Dec31,  !- Name
    NECB-G-Electric-Equipment Sun|Hol Day,  !- Sunday Schedule:Day Name
    NECB-G-Electric-Equipment Default|Wkdy Day,  !- Monday Schedule:Day Name
    NECB-G-Electric-Equipment Default|Wkdy Day,  !- Tuesday Schedule:Day Name
    NECB-G-Electric-Equipment Default|Wkdy Day,  !- Wednesday Schedule:Day Name
    NECB-G-Electric-Equipment Default|Wkdy Day,  !- Thursday Schedule:Day Name
    NECB-G-Electric-Equipment Default|Wkdy Day,  !- Friday Schedule:Day Name
    NECB-G-Electric-Equipment Sat Day,  !- Saturday Schedule:Day Name
    NECB-G-Electric-Equipment Sun|Hol Day,  !- Holiday Schedule:Day Name
    NECB-G-Electric-Equipment Default|Wkdy Day,  !- SummerDesignDay Schedule:Day Name
    NECB-G-Electric-Equipment Default|Wkdy Day,  !- WinterDesignDay Schedule:Day Name
    NECB-G-Electric-Equipment Default|Wkdy Day,  !- CustomDay1 Schedule:Day Name
    NECB-G-Electric-Equipment Default|Wkdy Day;  !- CustomDay2 Schedule:Day Name

Schedule:Week:Daily,
    Always On Week Rule - Jan1-Dec31,  !- Name
    Always On Default,       !- Sunday Schedule:Day Name
    Always On Default,       !- Monday Schedule:Day Name
    Always On Default,       !- Tuesday Schedule:Day Name
    Always On Default,       !- Wednesday Schedule:Day Name
    Always On Default,       !- Thursday Schedule:Day Name
    Always On Default,       !- Friday Schedule:Day Name
    Always On Default,       !- Saturday Schedule:Day Name
    Always On Default,       !- Holiday Schedule:Day Name
    Always On Default,       !- SummerDesignDay Schedule:Day Name
    Always On Default,       !- WinterDesignDay Schedule:Day Name
    Always On Default,       !- CustomDay1 Schedule:Day Name
    Always On Default;       !- CustomDay2 Schedule:Day Name

Schedule:Week:Daily,
    Heating Setpoint: Week,  !- Name
    Heating Setpoint,        !- Sunday Schedule:Day Name
    Heating Setpoint,        !- Monday Schedule:Day Name
    Heating Setpoint,        !- Tuesday Schedule:Day Name
    Heating Setpoint,        !- Wednesday Schedule:Day Name
    Heating Setpoint,        !- Thursday Schedule:Day Name
    Heating Setpoint,        !- Friday Schedule:Day Name
    Heating Setpoint,        !- Saturday Schedule:Day Name
    Heating Setpoint,        !- Holiday Schedule:Day Name
    Heating Setpoint,        !- SummerDesignDay Schedule:Day Name
    Heating Setpoint,        !- WinterDesignDay Schedule:Day Name
    Heating Setpoint,        !- CustomDay1 Schedule:Day Name
    Heating Setpoint;        !- CustomDay2 Schedule:Day Name

Schedule:Week:Daily,
    Cooling Setpoint: Week,  !- Name
    Cooling Setpoint,        !- Sunday Schedule:Day Name
    Cooling Setpoint,        !- Monday Schedule:Day Name
    Cooling Setpoint,        !- Tuesday Schedule:Day Name
    Cooling Setpoint,        !- Wednesday Schedule:Day Name
    Cooling Setpoint,        !- Thursday Schedule:Day Name
    Cooling Setpoint,        !- Friday Schedule:Day Name
    Cooling Setpoint,        !- Saturday Schedule:Day Name
    Cooling Setpoint,        !- Holiday Schedule:Day Name
    Cooling Setpoint,        !- SummerDesignDay Schedule:Day Name
    Cooling Setpoint,        !- WinterDesignDay Schedule:Day Name
    Cooling Setpoint,        !- CustomDay1 Schedule:Day Name
    Cooling Setpoint;        !- CustomDay2 Schedule:Day Name

Schedule:Week:Daily,
    NECB-G-WaterHeating Week Rule - Jan1-Dec31,  !- Name
    NECB-G-WaterHeating Sun|Hol Day,  !- Sunday Schedule:Day Name
    NECB-G-WaterHeating Default|Wkdy Day,  !- Monday Schedule:Day Name
    NECB-G-WaterHeating Default|Wkdy Day,  !- Tuesday Schedule:Day Name
    NECB-G-WaterHeating Default|Wkdy Day,  !- Wednesday Schedule:Day Name
    NECB-G-WaterHeating Default|Wkdy Day,  !- Thursday Schedule:Day Name
    NECB-G-WaterHeating Default|Wkdy Day,  !- Friday Schedule:Day Name
    NECB-G-WaterHeating Sat Day,  !- Saturday Schedule:Day Name
    NECB-G-WaterHeating Sun|Hol Day,  !- Holiday Schedule:Day Name
    NECB-G-WaterHeating Default|Wkdy Day,  !- SummerDesignDay Schedule:Day Name
    NECB-G-WaterHeating Default|Wkdy Day,  !- WinterDesignDay Schedule:Day Name
    NECB-G-WaterHeating Default|Wkdy Day,  !- CustomDay1 Schedule:Day Name
    NECB-G-WaterHeating Default|Wkdy Day;  !- CustomDay2 Schedule:Day Name

Schedule:Week:Daily,
    NECB-Activity Week Rule - Jan1-Dec31,  !- Name
    NECB-Activity Default,   !- Sunday Schedule:Day Name
    NECB-Activity Default,   !- Monday Schedule:Day Name
    NECB-Activity Default,   !- Tuesday Schedule:Day Name
    NECB-Activity Default,   !- Wednesday Schedule:Day Name
    NECB-Activity Default,   !- Thursday Schedule:Day Name
    NECB-Activity Default,   !- Friday Schedule:Day Name
    NECB-Activity Default,   !- Saturday Schedule:Day Name
    NECB-Activity Default,   !- Holiday Schedule:Day Name
    NECB-Activity Default,   !- SummerDesignDay Schedule:Day Name
    NECB-Activity Default,   !- WinterDesignDay Schedule:Day Name
    NECB-Activity Default,   !- CustomDay1 Schedule:Day Name
    NECB-Activity Default;   !- CustomDay2 Schedule:Day Name

Schedule:Week:Daily,
    Work Efficiency Schedule Week Rule - Jan1-Dec31,  !- Name
    Work Efficiency Schedule Default,  !- Sunday Schedule:Day Name
    Work Efficiency Schedule Default,  !- Monday Schedule:Day Name
    Work Efficiency Schedule Default,  !- Tuesday Schedule:Day Name
    Work Efficiency Schedule Default,  !- Wednesday Schedule:Day Name
    Work Efficiency Schedule Default,  !- Thursday Schedule:Day Name
    Work Efficiency Schedule Default,  !- Friday Schedule:Day Name
    Work Efficiency Schedule Default,  !- Saturday Schedule:Day Name
    Work Efficiency Schedule Default,  !- Holiday Schedule:Day Name
    Work Efficiency Schedule Default,  !- SummerDesignDay Schedule:Day Name
    Work Efficiency Schedule Default,  !- WinterDesignDay Schedule:Day Name
    Work Efficiency Schedule Default,  !- CustomDay1 Schedule:Day Name
    Work Efficiency Schedule Default;  !- CustomDay2 Schedule:Day Name

Schedule:Week:Daily,
    Summer Clothing Schedule Week Rule - Jan1-Dec31,  !- Name
    Clothing Schedule Summer Clothes,  !- Sunday Schedule:Day Name
    Clothing Schedule Summer Clothes,  !- Monday Schedule:Day Name
    Clothing Schedule Summer Clothes,  !- Tuesday Schedule:Day Name
    Clothing Schedule Summer Clothes,  !- Wednesday Schedule:Day Name
    Clothing Schedule Summer Clothes,  !- Thursday Schedule:Day Name
    Clothing Schedule Summer Clothes,  !- Friday Schedule:Day Name
    Clothing Schedule Summer Clothes,  !- Saturday Schedule:Day Name
    Clothing Schedule Summer Clothes,  !- Holiday Schedule:Day Name
    Clothing Schedule Summer Clothes,  !- SummerDesignDay Schedule:Day Name
    Clothing Schedule Summer Clothes,  !- WinterDesignDay Schedule:Day Name
    Clothing Schedule Summer Clothes,  !- CustomDay1 Schedule:Day Name
    Clothing Schedule Summer Clothes;  !- CustomDay2 Schedule:Day Name

Schedule:Week:Daily,
    Winter Clothing Schedule Week Rule - Jan1-Dec31,  !- Name
    Clothing Schedule Default Winter Clothes,  !- Sunday Schedule:Day Name
    Clothing Schedule Default Winter Clothes,  !- Monday Schedule:Day Name
    Clothing Schedule Default Winter Clothes,  !- Tuesday Schedule:Day Name
    Clothing Schedule Default Winter Clothes,  !- Wednesday Schedule:Day Name
    Clothing Schedule Default Winter Clothes,  !- Thursday Schedule:Day Name
    Clothing Schedule Default Winter Clothes,  !- Friday Schedule:Day Name
    Clothing Schedule Default Winter Clothes,  !- Saturday Schedule:Day Name
    Clothing Schedule Default Winter Clothes,  !- Holiday Schedule:Day Name
    Clothing Schedule Default Winter Clothes,  !- SummerDesignDay Schedule:Day Name
    Clothing Schedule Default Winter Clothes,  !- WinterDesignDay Schedule:Day Name
    Clothing Schedule Default Winter Clothes,  !- CustomDay1 Schedule:Day Name
    Clothing Schedule Default Winter Clothes;  !- CustomDay2 Schedule:Day Name

Schedule:Week:Daily,
    Air Velocity Schedule Week Rule - Jan1-Dec31,  !- Name
    Air Velocity Schedule Default,  !- Sunday Schedule:Day Name
    Air Velocity Schedule Default,  !- Monday Schedule:Day Name